116

Ni        -1.55726        1.08852       -0.38267
Ni        -0.41098       -1.02496        1.53062
N         -2.00193        3.05121       -0.10670
N         -1.58748        3.82504        0.92339
O         -2.42653        1.12625       -2.16218
O         -0.40097        1.03644        1.26754
O         -3.35660        0.69801        0.76989
O          0.67683       -0.58202        3.29426
C         -2.88894        5.09121       -0.30518
H         -3.38606        5.82941       -0.63809
C         -2.81743        3.79754       -0.86090
C         -2.10043        5.06622        0.80467
H         -1.94046        5.79592        1.39123
C         -3.50312        3.29731       -2.05548
C         -4.44831        4.15211       -2.66140
H         -4.61699        4.99949       -2.26469
C         -5.13495        3.81201       -3.79793
H         -5.76354        4.41232       -4.18156
C         -4.89768        2.57909       -4.37927
H         -5.36036        2.33274       -5.17008
C         -3.98581        1.69942       -3.80996
H         -3.84119        0.85467       -4.22079
C         -3.26862        2.02361       -2.63865
C         -0.68598        3.36404        1.97703
H          0.24659        3.54174        1.69459
H         -0.85760        3.89572        2.79294
C         -0.81575        1.88741        2.32326
H         -1.76034        1.68937        2.54450
H         -0.26973        1.69535        3.12768
N         -0.15565       -3.01355        1.92315
N          1.06028       -3.62762        1.84418
O         -2.21909       -1.10377        2.36249
O          1.27150       -0.95310        0.39122
C         -0.13828       -4.84200        3.22443
H         -0.41723       -5.52041        3.82852
C         -0.89556       -3.74325        2.77254
C          1.07591       -4.73138        2.61485
H          1.80647       -5.33027        2.71710
C         -2.28929       -3.41487        3.10022
C         -3.08122       -4.42692        3.66612
H         -2.68959       -5.27765        3.82852
C         -4.40920       -4.23415        3.99772
H         -4.91864       -4.93803        4.38292
C         -4.98970       -2.98843        3.75529
H         -5.90280       -2.83931        3.97235
C         -4.23388       -1.96981        3.19932
H         -4.64403       -1.12805        3.04137
C         -2.86608       -2.14153        2.85884
C          2.05535       -3.23574        0.84991
H          2.89515       -3.72783        1.03297
H          1.73530       -3.51497       -0.04446
C          2.36464       -1.75121        0.81068
H          3.12603       -1.59921        0.19613
H          2.64579       -1.45930        1.71551
H          0.83189       -1.13881        3.88605
H          1.38776       -0.21801        3.15382
H         -3.08403        0.17662        1.34678
H         -4.05595        0.52342        0.41318
Ni         1.55726        1.08852        0.38267
Ni         0.41098       -1.02496       -1.53063
N          2.00193        3.05121        0.10670
N          1.58749        3.82504       -0.92340
O          2.42653        1.12625        2.16217
O          0.40097        1.03644       -1.26755
O          3.35660        0.69801       -0.76989
O         -0.67683       -0.58202       -3.29426
C          2.88894        5.09121        0.30518
H          3.38606        5.82941        0.63808
C          2.81743        3.79754        0.86089
C          2.10043        5.06622       -0.80467
H          1.94046        5.79592       -1.39124
C          3.50312        3.29731        2.05548
C          4.44831        4.15211        2.66140
H          4.61699        4.99949        2.26469
C          5.13495        3.81201        3.79792
H          5.76355        4.41232        4.18156
C          4.89768        2.57909        4.37926
H          5.36037        2.33274        5.17007
C          3.98581        1.69942        3.80995
H          3.84120        0.85467        4.22079
C          3.26862        2.02361        2.63865
C          0.68599        3.36404       -1.97703
H         -0.24659        3.54174       -1.69460
H          0.85760        3.89572       -2.79294
C          0.81576        1.88741       -2.32327
H          1.76034        1.68937       -2.54450
H          0.26974        1.69535       -3.12767
N          0.15566       -3.01355       -1.92315
N         -1.06028       -3.62762       -1.84418
O          2.21909       -1.10377       -2.36249
O         -1.27150       -0.95310       -0.39122
C          0.13828       -4.84200       -3.22444
H          0.41724       -5.52041       -3.82852
C          0.89556       -3.74325       -2.77254
C         -1.07591       -4.73138       -2.61485
H         -1.80647       -5.33027       -2.71710
C          2.28929       -3.41487       -3.10021
C          3.08122       -4.42692       -3.66613
H          2.68959       -5.27765       -3.82852
C          4.40920       -4.23415       -3.99772
H          4.91864       -4.93803       -4.38293
C          4.98970       -2.98843       -3.75530
H          5.90280       -2.83931       -3.97235
C          4.23388       -1.96981       -3.19933
H          4.64403       -1.12805       -3.04138
C          2.86608       -2.14153       -2.85884
C         -2.05535       -3.23574       -0.84991
H         -2.89514       -3.72783       -1.03297
H         -1.73530       -3.51497        0.04446
C         -2.36464       -1.75121       -0.81069
H         -3.12603       -1.59921       -0.19614
H         -2.64579       -1.45930       -1.71552
H         -0.83189       -1.13881       -3.88606
H         -1.38776       -0.21801       -3.15383
H          3.08403        0.17662       -1.34678
H          4.05595        0.52342       -0.41319

